#!/sbin/sh
# FRP 专用安装脚本
# 版本：2024.3 增强版

OUTFD=$2
ZIPFILE=$3

ui_print() {
  echo -e "ui_print $1\nui_print" > /proc/self/fd/$OUTFD
}

progress() {
  echo "progress $1 $2" > /proc/self/fd/$OUTFD
}

# 设备兼容性检查
check_device() {
  case $(getprop ro.product.cpu.abi) in
    arm64-v8a)
      ui_print "✅ 检测到 ARM64 设备"
      ;;
    armeabi-v7a)
      ui_print "⚠️  检测到 ARMv7 设备（性能受限）"
      ;;
    *)
      ui_print "❌ 不支持的架构：$(getprop ro.product.cpu.abi)"
      exit 1
      ;;
  esac
}

install_module() {
  # 创建核心目录
  progress 0.25 "正在初始化文件系统..."
  mkdir -p $MODPATH/{bin,logs,config}
  
  # 解压核心组件
  progress 0.45 "正在部署运行环境..."
  unzip -o "$ZIPFILE" \
    'bin/*' \
    'config/*' \
    'scripts/*' \
    -d "$MODPATH"
  
  # 设置权限
  progress 0.65 "正在配置安全权限..."
  chmod 755 $MODPATH/bin/*
  chmod 700 $MODPATH/scripts/*
  chmod 600 $MODPATH/config/*
  
  # 生成初始配置
  progress 0.85 "正在生成安全凭证..."
  RAND_TOKEN=$(openssl rand -base64 32 | tr -dc 'a-zA-Z0-9!@#$%^&*()')
  echo "token=$RAND_TOKEN" > $MODPATH/config/security.cfg
}

# 主安装流程
{
  check_device
  install_module
  
  # 完成提示
  progress 1.0 "安装完成！"
  ui_print "────────────────────"
  ui_print "FRP 控制面板信息："
  ui_print "▪️ 地址: http://[设备IP]:7500"
  ui_print "▪️ 用户名: admin"
  ui_print "▪️ 密码: ${RAND_TOKEN:0:12}****"
  ui_print "────────────────────"
} > /dev/null 2>&1

exit 0
